ieee-cdf/ieee-cdf-converter/src/test/resources/ieee9zeroimpedancecdf.xiidm
<?xml version="1.0" encoding="UTF-8"?>
<iidm:network xmlns:iidm="http://www.powsybl.org/schema/iidm/1_17" xmlns:slt="http://www.powsybl.org/schema/iidm/ext/slack_terminal/1_5" id="ieee9zeroimpedancecdf" caseDate="2009-04-26T00:00:00.000Z" forecastDistance="0" sourceFormat="IEEE-CDF" minimumValidationLevel="STEADY_STATE_HYPOTHESIS">
    <iidm:substation id="S1">
        <iidm:voltageLevel id="VL1" nominalV="100.0" topologyKind="BUS_BREAKER">
            <iidm:busBreakerTopology>
                <iidm:bus id="B1" name="BUS-1   100" v="104.0" angle="0.0"/>
                <iidm:bus id="B4" name="BUS-4   100" v="102.49999999999999" angle="-2.216"/>
            </iidm:busBreakerTopology>
            <iidm:generator id="B1-G" energySource="OTHER" minP="-9999.0" maxP="9999.0" targetP="71.64102" localTargetV="104.0" localTargetQ="27.04592" bus="B1" connectableBus="B1">
                <iidm:minMaxReactiveLimits minQ="-99990.0" maxQ="999900.0"/>
                <iidm:voltageRegulation mode="VOLTAGE" regulating="true"/>
            </iidm:generator>
        </iidm:voltageLevel>
        <iidm:twoWindingsTransformer id="T4-1-0" r="0.0" x="5.76" ratedU1="100.0" ratedU2="100.0" bus1="B4" connectableBus1="B4" voltageLevelId1="VL1" bus2="B1" connectableBus2="B1" voltageLevelId2="VL1">
            <iidm:ratioTapChanger tapPosition="0" loadTapChangingCapabilities="true">
                <iidm:step rho="1.0"/>
                <iidm:voltageRegulation mode="VOLTAGE" regulating="false"/>
            </iidm:ratioTapChanger>
        </iidm:twoWindingsTransformer>
    </iidm:substation>
    <iidm:substation id="S2">
        <iidm:voltageLevel id="VL2" nominalV="100.0" topologyKind="BUS_BREAKER">
            <iidm:busBreakerTopology>
                <iidm:bus id="B2" name="BUS-2   100" v="102.49999999999999" angle="9.28"/>
                <iidm:bus id="B7" name="BUS-7   100" v="102.49999999999999" angle="3.7197"/>
                <iidm:bus id="B8" name="BUS-8   100" v="101.49999999999999" angle="0.7275"/>
            </iidm:busBreakerTopology>
            <iidm:generator id="B2-G" energySource="OTHER" minP="-9999.0" maxP="9999.0" targetP="163.0" localTargetV="102.49999999999999" localTargetQ="6.65366" bus="B2" connectableBus="B2">
                <iidm:minMaxReactiveLimits minQ="-99990.0" maxQ="999900.0"/>
                <iidm:voltageRegulation mode="VOLTAGE" regulating="true"/>
            </iidm:generator>
            <iidm:load id="B8-L" loadType="UNDEFINED" p0="100.0" q0="35.0" bus="B8" connectableBus="B8"/>
        </iidm:voltageLevel>
        <iidm:twoWindingsTransformer id="T7-2-0" r="0.0" x="6.25" ratedU1="100.0" ratedU2="100.0" bus1="B7" connectableBus1="B7" voltageLevelId1="VL2" bus2="B2" connectableBus2="B2" voltageLevelId2="VL2">
            <iidm:ratioTapChanger tapPosition="0" loadTapChangingCapabilities="true">
                <iidm:step rho="1.0"/>
                <iidm:voltageRegulation mode="VOLTAGE" regulating="false"/>
            </iidm:ratioTapChanger>
        </iidm:twoWindingsTransformer>
    </iidm:substation>
    <iidm:substation id="S3">
        <iidm:voltageLevel id="VL3" nominalV="100.0" topologyKind="BUS_BREAKER">
            <iidm:busBreakerTopology>
                <iidm:bus id="B3" name="BUS-3   100" v="102.49999999999999" angle="4.6647"/>
                <iidm:bus id="B9" name="BUS-9   100" v="103.2" angle="1.9667"/>
            </iidm:busBreakerTopology>
            <iidm:generator id="B3-G" energySource="OTHER" minP="-9999.0" maxP="9999.0" targetP="85.0" localTargetV="102.49999999999999" localTargetQ="-10.8597" bus="B3" connectableBus="B3">
                <iidm:minMaxReactiveLimits minQ="-99990.0" maxQ="999900.0"/>
                <iidm:voltageRegulation mode="VOLTAGE" regulating="true"/>
            </iidm:generator>
        </iidm:voltageLevel>
        <iidm:twoWindingsTransformer id="T9-3-0" r="0.0" x="5.86" ratedU1="100.0" ratedU2="100.0" bus1="B9" connectableBus1="B9" voltageLevelId1="VL3" bus2="B3" connectableBus2="B3" voltageLevelId2="VL3">
            <iidm:ratioTapChanger tapPosition="0" loadTapChangingCapabilities="true">
                <iidm:step rho="1.0"/>
                <iidm:voltageRegulation mode="VOLTAGE" regulating="false"/>
            </iidm:ratioTapChanger>
        </iidm:twoWindingsTransformer>
    </iidm:substation>
    <iidm:substation id="S5">
        <iidm:voltageLevel id="VL5" nominalV="100.0" topologyKind="BUS_BREAKER">
            <iidm:busBreakerTopology>
                <iidm:bus id="B5" name="BUS-5   100" v="99.5" angle="-3.988"/>
            </iidm:busBreakerTopology>
            <iidm:load id="B5-L" loadType="UNDEFINED" p0="125.0" q0="50.0" bus="B5" connectableBus="B5"/>
        </iidm:voltageLevel>
    </iidm:substation>
    <iidm:substation id="S6">
        <iidm:voltageLevel id="VL6" nominalV="100.0" topologyKind="BUS_BREAKER">
            <iidm:busBreakerTopology>
                <iidm:bus id="B6" name="BUS-6   100" v="101.2" angle="-3.687"/>
            </iidm:busBreakerTopology>
            <iidm:load id="B6-L" loadType="UNDEFINED" p0="90.0" q0="30.0" bus="B6" connectableBus="B6"/>
        </iidm:voltageLevel>
    </iidm:substation>
    <iidm:line id="L7-8-0" r="0.0" x="0.0" bus1="B7" connectableBus1="B7" voltageLevelId1="VL2" bus2="B8" connectableBus2="B8" voltageLevelId2="VL2"/>
    <iidm:line id="L9-8-0" r="1.1900000000000002" x="10.08" b1="0.001045" b2="0.001045" bus1="B9" connectableBus1="B9" voltageLevelId1="VL3" bus2="B8" connectableBus2="B8" voltageLevelId2="VL2"/>
    <iidm:line id="L7-5-0" r="3.2" x="16.1" b1="0.00153" b2="0.00153" bus1="B7" connectableBus1="B7" voltageLevelId1="VL2" bus2="B5" connectableBus2="B5" voltageLevelId2="VL5"/>
    <iidm:line id="L9-6-0" r="3.9" x="17.0" b1="0.00179" b2="0.00179" bus1="B9" connectableBus1="B9" voltageLevelId1="VL3" bus2="B6" connectableBus2="B6" voltageLevelId2="VL6"/>
    <iidm:line id="L5-4-0" r="1.0" x="8.5" b1="8.799999999999999E-4" b2="8.799999999999999E-4" bus1="B5" connectableBus1="B5" voltageLevelId1="VL5" bus2="B4" connectableBus2="B4" voltageLevelId2="VL1"/>
    <iidm:line id="L6-4-0" r="1.7000000000000002" x="9.2" b1="7.9E-4" b2="7.9E-4" bus1="B6" connectableBus1="B6" voltageLevelId1="VL6" bus2="B4" connectableBus2="B4" voltageLevelId2="VL1"/>
    <iidm:extension id="VL1">
        <slt:slackTerminal id="B1-G"/>
    </iidm:extension>
</iidm:network>
